*Heading
** Job name: modal2 Model name: Model-2
** Generated by: Abaqus/CAE 2023
*Preprint, echo=NO, model=NO, history=NO, contact=NO
**
** PARTS
**
*Part, name=column
*Node
      1,       -1185.,         660.,           2.
      2,       -1185.,         675.,           2.
      3,       -1200.,         675.,           2.
      4,       -1200.,         660.,           2.
      5,       -1185.,         675.,           0.
      6,       -1200.,         675.,           0.
      7,       -1200.,         660.,           0.
      8,       -1185.,         660.,           0.
      9,       -1170.,         660.,           2.
     10,       -1170.,         660.,           0.
     11,       -1185.,         775.,           2.
     12,       -1185.,         790.,           2.
     13,       -1200.,         790.,           2.
     14,       -1200.,         775.,           2.
     15,       -1185.,         790.,           0.
     16,       -1200.,         790.,           0.
     17,       -1200.,         775.,           0.
     18,       -1185.,         775.,           0.
     19,       -1200.,         800.,           2.
     20,       -1170.,         800.,           2.
** ... 1621 like lines cut
*Element, type=C3D8R
 1,   70,  455, 1285,  445,    1,   29,  395,   48
 2,  455,  456, 1286, 1285,   29,   30,  396,  395
 3,  456,  457, 1287, 1286,   30,   31,  397,  396
 4,  457,  458, 1288, 1287,   31,   32,  398,  397
 5,  458,  459, 1289, 1288,   32,   33,  399,  398
 6,  459,   72,  450, 1289,   33,    2,   34,  399
 7,  445, 1285, 1290,  446,   48,  395,  400,   47
 8, 1285, 1286, 1291, 1290,  395,  396,  401,  400
 9, 1286, 1287, 1292, 1291,  396,  397,  402,  401
10, 1287, 1288, 1293, 1292,  397,  398,  403,  402
11, 1288, 1289, 1294, 1293,  398,  399,  404,  403
12, 1289,  450,  451, 1294,  399,   34,   35,  404
13,  446, 1290, 1295,  447,   47,  400,  405,   46
14, 1290, 1291, 1296, 1295,  400,  401,  406,  405
15, 1291, 1292, 1297, 1296,  401,  402,  407,  406
16, 1292, 1293, 1298, 1297,  402,  403,  408,  407
17, 1293, 1294, 1299, 1298,  403,  404,  409,  408
18, 1294,  451,  452, 1299,  404,   35,   36,  409
19,  447, 1295, 1300,  448,   46,  405,  410,   45
20, 1295, 1296, 1301, 1300,  405,  406,  411,  410
** ... 924 like lines cut
*Nset, nset=Set-1, generate
    1,  1641,     1
*Elset, elset=Set-1, generate
   1,  944,    1
** Section: Section-column
*Solid Section, elset=Set-1, material=Aluminum
,
*End Part
**  
*Part, name=slab
*Node
      1,       -2030.,        1200.,         10.5
      2,       -2000.,        1200.,         10.5
      3,       -2000.,        1200.,           0.
      4,       -2030.,        1200.,           0.
      5,       -2000.,        1020.,         10.5
      6,       -2000.,        1020.,           0.
      7,       -2030.,        1020.,           0.
      8,       -2030.,        1020.,         10.5
      9,       -2170.,        1200.,          21.
     10,       -2170.,        1200.,         10.5
     11,       -2200.,        1200.,         10.5
     12,       -2200.,        1200.,          21.
     13,       -2170.,        1020.,         10.5
     14,       -2200.,        1020.,         10.5
     15,       -2200.,        1020.,          21.
     16,       -2170.,        1020.,          21.
     17,       -2170.,        1200.,           0.
     18,       -2170.,        1020.,           0.
     19,       -2200.,        1020.,           0.
     20,       -2200.,        1200.,           0.
** ... 526 like lines cut
*Element, type=C3D8I
 1,  40, 217, 228,  39,   1,  25,  26,   4
 2, 217,  62,  61, 228,  25,   2,   3,  26
 3,  41, 218, 229,  38,  40, 217, 228,  39
 4, 218,  63,  60, 229, 217,  62,  61, 228
 5,  42, 219, 230,  37,  41, 218, 229,  38
 6, 219,  64,  59, 230, 218,  63,  60, 229
 7,  43, 220, 231,  36,  42, 219, 230,  37
 8, 220,  65,  58, 231, 219,  64,  59, 230
 9,  44, 221, 232,  35,  43, 220, 231,  36
10, 221,  66,  57, 232, 220,  65,  58, 231
11,  45, 222, 233,  34,  44, 221, 232,  35
12, 222,  67,  56, 233, 221,  66,  57, 232
13,  46, 223, 234,  33,  45, 222, 233,  34
14, 223,  68,  55, 234, 222,  67,  56, 233
15,  47, 224, 235,  32,  46, 223, 234,  33
16, 224,  69,  54, 235, 223,  68,  55, 234
17,  48, 225, 236,  31,  47, 224, 235,  32
18, 225,  70,  53, 236, 224,  69,  54, 235
19,  49, 226, 237,  30,  48, 225, 236,  31
20, 226,  71,  52, 237, 225,  70,  53, 236
** ... 292 like lines cut
*Nset, nset=Set-1, generate
   1,  546,    1
*Elset, elset=Set-1, generate
   1,  312,    1
** Section: Section-slab
*Solid Section, elset=Set-1, material=PE
,
*End Part
**  
**
** ASSEMBLY
**
*Assembly, name=Assembly
**  
*Instance, name=column-1, part=column
      -1200.,          92.,        1260.
      -1200.,          92.,        1260.,       -1200., 92.7071067901583, 1259.29289320984,         180.
*End Instance
**  
*Instance, name=slab-1, part=slab
       2000.,       -1110.,         600.
*End Instance
**  
*Instance, name=column-1-rad-2, part=column
       1000.,          92.,        -190.
       1000.,          92.,        -190., 1001.00000001269,          92.,        -190., 89.9999992730282
*End Instance
**  
*Instance, name=column-1-lin-1-2, part=column
      -1200.,         -90.,        1260.
      -1200.,         -90.,        1260.,       -1200., -89.2928932098417, 1259.29289320984,         180.
*End Instance
**  
*Instance, name=column-1-rad-2-lin-1-2, part=column
       1000.,         -90.,        -190.
       1000.,         -90.,        -190., 1001.00000001269,         -90.,        -190., 89.9999992730282
*End Instance
**  
*Instance, name=slab-1-lin-1-2, part=slab
       2000.,       -1110.,         449.
*End Instance
**  
*Instance, name=column-1-lin-1-2-1, part=column
      -1200.,          92.,        1109.
      -1200.,          92.,        1109.,       -1200., 92.7071067901583, 1108.29289320984,         180.
*End Instance
**  
*Instance, name=column-1-rad-2-lin-1-2-1, part=column
       1000.,          92.,        -341.
       1000.,          92.,        -341., 1001.00000001269,          92.,        -341., 89.9999992730282
*End Instance
**  
*Instance, name=column-1-lin-1-2-lin-1-2, part=column
      -1200.,         -90.,        1109.
      -1200.,         -90.,        1109.,       -1200., -89.2928932098417, 1108.29289320984,         180.
*End Instance
**  
*Instance, name=slab-1-lin-1-2-lin-1-2, part=slab
       2000.,       -1110.,         298.
*End Instance
**  
*Instance, name=column-1-rad-2-lin-1-2-lin-1-2, part=column
       1000.,         -90.,        -341.
       1000.,         -90.,        -341., 1001.00000001269,         -90.,        -341., 89.9999992730282
*End Instance
**  
*Instance, name=column-1-lin-1-2-2, part=column
      -1200.,          92.,         958.
      -1200.,          92.,         958.,       -1200., 92.7071067901583, 957.292893209842,         180.
*End Instance
**  
*Instance, name=column-1-rad-2-lin-1-2-2, part=column
       1000.,          92.,        -492.
       1000.,          92.,        -492., 1001.00000001269,          92.,        -492., 89.9999992730282
*End Instance
**  
*Instance, name=column-1-lin-1-2-lin-1-2-1, part=column
      -1200.,         -90.,         958.
      -1200.,         -90.,         958.,       -1200., -89.2928932098417, 957.292893209842,         180.
*End Instance
**  
*Instance, name=slab-1-lin-1-2-lin-1-2-1, part=slab
       2000.,       -1110.,         147.
*End Instance
**  
*Instance, name=slab-1-lin-1-2-lin-1-2-lin-1-2, part=slab
       2000.,       -1110.,          -4.
*End Instance
**  
*Instance, name=column-1-rad-2-lin-1-2-lin-1-2-1, part=column
       1000.,         -90.,        -492.
       1000.,         -90.,        -492., 1001.00000001269,         -90.,        -492., 89.9999992730282
*End Instance
**  
*Instance, name=column-1-lin-1-2-lin-1-2-lin-1-2, part=column
      -1200.,         -90.,         807.
      -1200.,         -90.,         807.,       -1200., -89.2928932098417, 806.292893209842,         180.
*End Instance
**  
*Instance, name=column-1-rad-2-lin-1-2-lin-1-2-lin-1-2, part=column
       1000.,         -90.,        -643.
       1000.,         -90.,        -643., 1001.00000001269,         -90.,        -643., 89.9999992730282
*End Instance
**  
*Instance, name=column-1-lin-1-2-1-lin-1-2, part=column
      -1200.,          92.,         807.
      -1200.,          92.,         807.,       -1200., 92.7071067901583, 806.292893209842,         180.
*End Instance
**  
*Instance, name=column-1-rad-2-lin-1-2-1-lin-1-2, part=column
       1000.,          92.,        -643.
       1000.,          92.,        -643., 1001.00000001269,          92.,        -643., 89.9999992730282
*End Instance
**  
*Elset, elset=Set-7, instance=column-1-rad-2-lin-1-2-lin-1-2-lin-1-2
 271,
*Nset, nset=Set-10, instance=slab-1
   9,  12,  15,  16,  21,  22,  23,  24,  74,  76,  77,  78,  79,  80,  81,  82
  83,  84,  85,  86,  87,  88,  89,  90,  91,  92,  93,  94,  95,  96,  97,  98
 145, 146, 147, 148, 149, 150, 151, 152, 169, 170, 171, 172, 173, 174, 175, 176
 193, 194, 195, 196, 197, 198, 199, 200, 201, 202, 203, 204, 205, 206, 207, 208
 209, 210, 211, 212, 213, 214, 215, 216
*Elset, elset=Set-10, instance=slab-1
  25,  26,  27,  28,  29,  30,  31,  32,  33,  34,  35,  36,  37,  38,  39,  40
  41,  42,  43,  44,  45,  46,  47,  48,  73,  74,  75,  76,  77,  78,  79,  80
  81,  91,  99, 109, 117, 127, 135, 145, 153, 163, 171, 181, 189, 199, 207, 217
 225, 235, 243, 253, 261, 271, 272, 273, 274, 275, 276, 277, 278, 279, 289, 290
 291, 292, 293, 294, 295, 296, 297, 298, 299, 300, 301, 302, 303, 304, 305, 306
 307, 308, 309, 310, 311, 312
*Elset, elset=_Surf-3_S5, internal, instance=slab-1-lin-1-2-lin-1-2-lin-1-2
   1,   2,   3,   4,   5,   6,   7,   8,   9,  10,  11,  12,  13,  14,  15,  16
  17,  18,  19,  20,  21,  22,  23,  24,  82,  83,  84,  85,  86,  87,  88,  89
  90, 100, 101, 102, 103, 104, 105, 106, 107, 108, 118, 119, 120, 121, 122, 123
 124, 125, 126, 136, 137, 138, 139, 140, 141, 142, 143, 144, 154, 155, 156, 157
 158, 159, 160, 161, 162, 172, 173, 174, 175, 176, 177, 178, 179, 180, 190, 191
 192, 193, 194, 195, 196, 197, 198, 208, 209, 210, 211, 212, 213, 214, 215, 216
 226, 227, 228, 229, 230, 231, 232, 233, 234, 244, 245, 246, 247, 248, 249, 250
 251, 252, 262, 263, 264, 265, 266, 267, 268, 269, 270, 280, 281, 282, 283, 284
 285, 286, 287, 288
*Elset, elset=_Surf-3_S2, internal, instance=slab-1-lin-1-2-lin-1-2-lin-1-2, generate
 49,  72,   1
*Surface, type=ELEMENT, name=Surf-3
_Surf-3_S5, S5
_Surf-3_S2, S2
*Elset, elset=_Surf-4_S5, internal, instance=slab-1-lin-1-2-lin-1-2-lin-1-2
   1,   2,   3,   4,   5,   6,   7,   8,   9,  10,  11,  12,  13,  14,  15,  16
  17,  18,  19,  20,  21,  22,  23,  24,  82,  83,  84,  85,  86,  87,  88,  89
  90, 100, 101, 102, 103, 104, 105, 106, 107, 108, 118, 119, 120, 121, 122, 123
 124, 125, 126, 136, 137, 138, 139, 140, 141, 142, 143, 144, 154, 155, 156, 157
 158, 159, 160, 161, 162, 172, 173, 174, 175, 176, 177, 178, 179, 180, 190, 191
 192, 193, 194, 195, 196, 197, 198, 208, 209, 210, 211, 212, 213, 214, 215, 216
 226, 227, 228, 229, 230, 231, 232, 233, 234, 244, 245, 246, 247, 248, 249, 250
 251, 252, 262, 263, 264, 265, 266, 267, 268, 269, 270, 280, 281, 282, 283, 284
 285, 286, 287, 288
*Elset, elset=_Surf-4_S2, internal, instance=slab-1-lin-1-2-lin-1-2-lin-1-2, generate
 49,  72,   1
*Surface, type=ELEMENT, name=Surf-4
_Surf-4_S5, S5
_Surf-4_S2, S2
*Elset, elset=_Surf-6_S1, internal, instance=slab-1-lin-1-2-lin-1-2-lin-1-2, generate
 280,  288,    1
*Surface, type=ELEMENT, name=Surf-6
_Surf-6_S1, S1
*Elset, elset=_m_Surf-1_S2, internal, instance=column-1, generate
 849,  896,    1
*Elset, elset=_m_Surf-1_S2, internal, instance=column-1-rad-2, generate
 849,  896,    1
*Elset, elset=_m_Surf-1_S2, internal, instance=column-1-lin-1-2-1, generate
 849,  896,    1
*Elset, elset=_m_Surf-1_S2, internal, instance=column-1-rad-2-lin-1-2-2, generate
 849,  896,    1
*Elset, elset=_m_Surf-1_S2, internal, instance=column-1-rad-2-lin-1-2-1-lin-1-2, generate
 849,  896,    1
*Elset, elset=_m_Surf-1_S2, internal, instance=column-1-rad-2-lin-1-2-1, generate
 849,  896,    1
*Elset, elset=_m_Surf-1_S2, internal, instance=column-1-lin-1-2-2, generate
 849,  896,    1
*Elset, elset=_m_Surf-1_S2, internal, instance=column-1-lin-1-2-1-lin-1-2, generate
 849,  896,    1
*Elset, elset=_m_Surf-1_S3, internal, instance=column-1
 689, 690, 691, 692, 693, 694, 695, 696, 697, 698, 699, 700, 713, 714, 715, 716
 717, 718, 719, 720, 721, 722, 723, 724, 737, 738, 739, 740, 741, 742, 743, 744
 745, 746, 747, 748, 761, 762, 763, 764, 765, 766, 767, 768, 769, 770, 771, 772
*Elset, elset=_m_Surf-1_S3, internal, instance=column-1-rad-2
 689, 690, 691, 692, 693, 694, 695, 696, 697, 698, 699, 700, 713, 714, 715, 716
 717, 718, 719, 720, 721, 722, 723, 724, 737, 738, 739, 740, 741, 742, 743, 744
 745, 746, 747, 748, 761, 762, 763, 764, 765, 766, 767, 768, 769, 770, 771, 772
*Elset, elset=_m_Surf-1_S3, internal, instance=column-1-lin-1-2-1
 689, 690, 691, 692, 693, 694, 695, 696, 697, 698, 699, 700, 713, 714, 715, 716
 717, 718, 719, 720, 721, 722, 723, 724, 737, 738, 739, 740, 741, 742, 743, 744
 745, 746, 747, 748, 761, 762, 763, 764, 765, 766, 767, 768, 769, 770, 771, 772
*Elset, elset=_m_Surf-1_S3, internal, instance=column-1-rad-2-lin-1-2-2
 689, 690, 691, 692, 693, 694, 695, 696, 697, 698, 699, 700, 713, 714, 715, 716
 717, 718, 719, 720, 721, 722, 723, 724, 737, 738, 739, 740, 741, 742, 743, 744
 745, 746, 747, 748, 761, 762, 763, 764, 765, 766, 767, 768, 769, 770, 771, 772
*Elset, elset=_m_Surf-1_S3, internal, instance=column-1-rad-2-lin-1-2-1-lin-1-2
 689, 690, 691, 692, 693, 694, 695, 696, 697, 698, 699, 700, 713, 714, 715, 716
 717, 718, 719, 720, 721, 722, 723, 724, 737, 738, 739, 740, 741, 742, 743, 744
 745, 746, 747, 748, 761, 762, 763, 764, 765, 766, 767, 768, 769, 770, 771, 772
*Elset, elset=_m_Surf-1_S3, internal, instance=column-1-rad-2-lin-1-2-1
 689, 690, 691, 692, 693, 694, 695, 696, 697, 698, 699, 700, 713, 714, 715, 716
 717, 718, 719, 720, 721, 722, 723, 724, 737, 738, 739, 740, 741, 742, 743, 744
 745, 746, 747, 748, 761, 762, 763, 764, 765, 766, 767, 768, 769, 770, 771, 772
*Elset, elset=_m_Surf-1_S3, internal, instance=column-1-lin-1-2-2
 689, 690, 691, 692, 693, 694, 695, 696, 697, 698, 699, 700, 713, 714, 715, 716
 717, 718, 719, 720, 721, 722, 723, 724, 737, 738, 739, 740, 741, 742, 743, 744
 745, 746, 747, 748, 761, 762, 763, 764, 765, 766, 767, 768, 769, 770, 771, 772
*Elset, elset=_m_Surf-1_S3, internal, instance=column-1-lin-1-2-1-lin-1-2
 689, 690, 691, 692, 693, 694, 695, 696, 697, 698, 699, 700, 713, 714, 715, 716
 717, 718, 719, 720, 721, 722, 723, 724, 737, 738, 739, 740, 741, 742, 743, 744
 745, 746, 747, 748, 761, 762, 763, 764, 765, 766, 767, 768, 769, 770, 771, 772
*Elset, elset=_m_Surf-1_S5, internal, instance=column-1-rad-2-lin-1-2
 701, 702, 703, 704, 705, 706, 707, 708, 709, 710, 711, 712, 725, 726, 727, 728
 729, 730, 731, 732, 733, 734, 735, 736, 749, 750, 751, 752, 753, 754, 755, 756
 757, 758, 759, 760, 773, 774, 775, 776, 777, 778, 779, 780, 781, 782, 783, 784
*Elset, elset=_m_Surf-1_S5, internal, instance=column-1-rad-2-lin-1-2-lin-1-2
 701, 702, 703, 704, 705, 706, 707, 708, 709, 710, 711, 712, 725, 726, 727, 728
 729, 730, 731, 732, 733, 734, 735, 736, 749, 750, 751, 752, 753, 754, 755, 756
 757, 758, 759, 760, 773, 774, 775, 776, 777, 778, 779, 780, 781, 782, 783, 784
*Elset, elset=_m_Surf-1_S5, internal, instance=column-1-rad-2-lin-1-2-lin-1-2-lin-1-2
 701, 702, 703, 704, 705, 706, 707, 708, 709, 710, 711, 712, 725, 726, 727, 728
 729, 730, 731, 732, 733, 734, 735, 736, 749, 750, 751, 752, 753, 754, 755, 756
 757, 758, 759, 760, 773, 774, 775, 776, 777, 778, 779, 780, 781, 782, 783, 784
*Elset, elset=_m_Surf-1_S5, internal, instance=column-1-lin-1-2-lin-1-2
 701, 702, 703, 704, 705, 706, 707, 708, 709, 710, 711, 712, 725, 726, 727, 728
 729, 730, 731, 732, 733, 734, 735, 736, 749, 750, 751, 752, 753, 754, 755, 756
 757, 758, 759, 760, 773, 774, 775, 776, 777, 778, 779, 780, 781, 782, 783, 784
*Elset, elset=_m_Surf-1_S5, internal, instance=column-1-rad-2-lin-1-2-lin-1-2-1
 701, 702, 703, 704, 705, 706, 707, 708, 709, 710, 711, 712, 725, 726, 727, 728
 729, 730, 731, 732, 733, 734, 735, 736, 749, 750, 751, 752, 753, 754, 755, 756
 757, 758, 759, 760, 773, 774, 775, 776, 777, 778, 779, 780, 781, 782, 783, 784
*Elset, elset=_m_Surf-1_S5, internal, instance=column-1-lin-1-2
 701, 702, 703, 704, 705, 706, 707, 708, 709, 710, 711, 712, 725, 726, 727, 728
 729, 730, 731, 732, 733, 734, 735, 736, 749, 750, 751, 752, 753, 754, 755, 756
 757, 758, 759, 760, 773, 774, 775, 776, 777, 778, 779, 780, 781, 782, 783, 784
*Elset, elset=_m_Surf-1_S5, internal, instance=column-1-lin-1-2-lin-1-2-1
 701, 702, 703, 704, 705, 706, 707, 708, 709, 710, 711, 712, 725, 726, 727, 728
 729, 730, 731, 732, 733, 734, 735, 736, 749, 750, 751, 752, 753, 754, 755, 756
 757, 758, 759, 760, 773, 774, 775, 776, 777, 778, 779, 780, 781, 782, 783, 784
*Elset, elset=_m_Surf-1_S5, internal, instance=column-1-lin-1-2-lin-1-2-lin-1-2
 701, 702, 703, 704, 705, 706, 707, 708, 709, 710, 711, 712, 725, 726, 727, 728
 729, 730, 731, 732, 733, 734, 735, 736, 749, 750, 751, 752, 753, 754, 755, 756
 757, 758, 759, 760, 773, 774, 775, 776, 777, 778, 779, 780, 781, 782, 783, 784
*Elset, elset=_m_Surf-1_S1, internal, instance=column-1-rad-2-lin-1-2, generate
 897,  944,    1
*Elset, elset=_m_Surf-1_S1, internal, instance=column-1-rad-2-lin-1-2-lin-1-2, generate
 897,  944,    1
*Elset, elset=_m_Surf-1_S1, internal, instance=column-1-rad-2-lin-1-2-lin-1-2-lin-1-2, generate
 897,  944,    1
*Elset, elset=_m_Surf-1_S1, internal, instance=column-1-lin-1-2-lin-1-2, generate
 897,  944,    1
*Elset, elset=_m_Surf-1_S1, internal, instance=column-1-rad-2-lin-1-2-lin-1-2-1, generate
 897,  944,    1
*Elset, elset=_m_Surf-1_S1, internal, instance=column-1-lin-1-2, generate
 897,  944,    1
*Elset, elset=_m_Surf-1_S1, internal, instance=column-1-lin-1-2-lin-1-2-1, generate
 897,  944,    1
*Elset, elset=_m_Surf-1_S1, internal, instance=column-1-lin-1-2-lin-1-2-lin-1-2, generate
 897,  944,    1
*Surface, type=ELEMENT, name=m_Surf-1
_m_Surf-1_S2, S2
_m_Surf-1_S3, S3
_m_Surf-1_S5, S5
_m_Surf-1_S1, S1
*Elset, elset=_s_Surf-1_S1, internal, instance=slab-1
 23, 24
*Elset, elset=_s_Surf-1_S1, internal, instance=slab-1-lin-1-2
  23,  24,  47,  48, 311, 312
*Elset, elset=_s_Surf-1_S1, internal, instance=slab-1-lin-1-2-lin-1-2-1
  23,  24,  47,  48, 311, 312
*Elset, elset=_s_Surf-1_S1, internal, instance=slab-1-lin-1-2-lin-1-2
  23,  24,  47,  48, 311, 312
*Elset, elset=_s_Surf-1_S1, internal, instance=slab-1-lin-1-2-lin-1-2-lin-1-2
  47,  48, 311, 312
*Elset, elset=_s_Surf-1_S4, internal, instance=slab-1
 60, 72
*Elset, elset=_s_Surf-1_S4, internal, instance=slab-1-lin-1-2
 60, 72
*Elset, elset=_s_Surf-1_S4, internal, instance=slab-1-lin-1-2-lin-1-2-1
 60, 72
*Elset, elset=_s_Surf-1_S4, internal, instance=slab-1-lin-1-2-lin-1-2
 60, 72
*Elset, elset=_s_Surf-1_S6, internal, instance=slab-1
 49, 61
*Elset, elset=_s_Surf-1_S6, internal, instance=slab-1-lin-1-2
 49, 61
*Elset, elset=_s_Surf-1_S6, internal, instance=slab-1-lin-1-2-lin-1-2-1
 49, 61
*Elset, elset=_s_Surf-1_S6, internal, instance=slab-1-lin-1-2-lin-1-2
 49, 61
*Elset, elset=_s_Surf-1_S2, internal, instance=slab-1
 1, 2
*Elset, elset=_s_Surf-1_S2, internal, instance=slab-1-lin-1-2
   1,   2,  25,  26, 289, 290
*Elset, elset=_s_Surf-1_S2, internal, instance=slab-1-lin-1-2-lin-1-2-1
   1,   2,  25,  26, 289, 290
*Elset, elset=_s_Surf-1_S2, internal, instance=slab-1-lin-1-2-lin-1-2
   1,   2,  25,  26, 289, 290
*Elset, elset=_s_Surf-1_S2, internal, instance=slab-1-lin-1-2-lin-1-2-lin-1-2
  25,  26, 289, 290
*Surface, type=ELEMENT, name=s_Surf-1
_s_Surf-1_S1, S1
_s_Surf-1_S4, S4
_s_Surf-1_S6, S6
_s_Surf-1_S2, S2
** Constraint: Constraint-1
*Tie, name=Constraint-1, adjust=yes
m_Surf-1, s_Surf-1
*End Assembly
** 
** MATERIALS
** 
*Material, name=Aluminum
*Density
 3.299e-09,
*Elastic
39570, 0.33
*Material, name=PE
*Density
 2.4e-09,
*Elastic
3500, 0.44
** 
** INTERACTION PROPERTIES
** 
*Surface Interaction, name=IntProp-1
1.,
*Friction, slip tolerance=0.005
 0.33,
*Surface Behavior, pressure-overclosure=HARD
** 
** BOUNDARY CONDITIONS
** 
** Name: BC-1 Type: Symmetry/Antisymmetry/Encastre
*Boundary
Set-10, ENCASTRE
** ----------------------------------------------------------------
** 
** STEP: Step-gravity
** 
*Step, name=Step-gravity, nlgeom=YES
*Static
1e-09, 1e-09, 1e-14, 1e-09
** 
** LOADS
** 
** Name: Load-gravity   Type: Gravity
*Dload
, GRAV, 9800., 0., 0., 1.
** 
** OUTPUT REQUESTS
** 
*Restart, write, frequency=0
** 
** FIELD OUTPUT: F-Output-1
** 
*Output, field
*Node Output
U, 
*Element Output, directions=YES
E, LE, PE, PEEQ, PEMAG, S
** 
** HISTORY OUTPUT: H-Output-1
** 
*Output, history
*Element Output
IRA1, IRA2, IRA3
*End Step
** ----------------------------------------------------------------
** 
** STEP: Step-freq
** 
*Step, name=Step-freq, nlgeom=NO, perturbation
*Frequency, eigensolver=Lanczos, sim, acoustic coupling=on, normalization=mass
10, , , , , 
** 
** OUTPUT REQUESTS
** 
*Restart, write, frequency=0
** 
** FIELD OUTPUT: F-Output-2
** 
*Output, field
*Node Output
U, 
*Element Output, directions=YES
E, LE, MISES, S
** 
** HISTORY OUTPUT: H-Output-2
** 
*Output, history
*Modal Output
BM, GA, GU, GV
*End Step
** ----------------------------------------------------------------
** 
** STEP: ADD
** 
*Step, name=ADD, nlgeom=YES
*Static
0.5, 0.5, 5e-06, 0.5
** 
** LOADS
** 
** Name: Load-2   Type: Pressure
*Dsload
Surf-6, P, 0.01361
** 
** OUTPUT REQUESTS
** 
*Restart, write, frequency=0
** 
** FIELD OUTPUT: F-Output-1, F-Output-3
** 
*Output, field
*Node Output
U, 
*Element Output, directions=YES
E, LE, PE, PEEQ, PEMAG, S
** 
** HISTORY OUTPUT: H-Output-1
** 
*Output, history
*Element Output
IRA1, IRA2, IRA3
** 
** HISTORY OUTPUT: H-Output-3
** 
*Element Output
IRA1, IRA2, IRA3, IRAR1, IRAR2, IRAR3
*End Step
